Sistemas teste e codigos/ConversaoFormatos_MatPower2pwf/Sistemas/case118bus_modificado.pwf
TITU
Sistema de 118 barras modificado -19-Jul-2024 10:59:24
DOPC IMPR
(Op) E (Op) E (Op) E (Op) E (Op) E (Op) E (Op) E (Op) E (Op) E (Op) E
QLIM L CREM D CTAP D STEP L NEWT L MOCT D MOCG D MOCF D RCVG L RMON L
FILE L
99999
DCTE
BASE   100. DASE   100. TEPA   1e-6 EXST    .04 TETP     5. TBPA     5.
TLPP     1. TEPR   1e-6 QLST    .04 TLPR   1e-6 TLPQ     2. TSBZ    .01
TSBA     5. ASTP    .05 VSTP     5. TLVC    .05 TLTC    .01 TSFR  .1E-7
ZMAX   500. TLPV     .5 VDVM   200. VDVN    40. TUDC   .001 TADC    .01
PGER    30. TPST    .02 VFLD    70. ZMIN   .001 HIST    470 LFIT     10
ACIT  99999 LFCV      1 DCIT     10 VSIT     10 LPIT     50 LFLP     10
PDIT     10 LCRT    200 LPRT     60 CSTP     5. ASDC     1.
ICIT   9999 DMAX   9999 FDIV     2. ICMN   1e-6 VART     5. TSTP     32
ICMV     .5 APAS    90. CPAR    70. VAVT     2. VAVF     5. VMVF    15.
VPVT     2. VPVF     5. VPMF    10. VSVF    20. VINF     1. VSUP     1.
TLSI     0. NDIR    20. STTR     5. TRPT   100. STIR     1. BFPO     1.
LFPO     .1 TLMT     0. TLMF     0. TLMG     0. PARS    10.            
99999
DBAR                                                                                                                    
(Num)OETGb(   nome   )Gl( V)( A)( Pg)( Qg)( Qn)( Qm)(Bc  )( Pl)( Ql)( Sh)Are(Vf)M(1)(2)(3)(4)(5)(6)(7)(8)(9)(10
    1  1  Riversde  V2   95510.7    0    0   -5   15      107.1 56.7    0  1                                            
    2  0  Pokagon   V2   97111.2    0    0    0    0         42 18.9    0  1                                            
    3  0  HickryCk  V2   96811.6    0    0    0    0       81.9   21    0  1                                            
    4  1  NwCarlsl  V2   99815.3    0    0 -300  300       81.9 25.2    0  1                                            
    5  0  Olive     V2  100215.7    0    0    0    0          0    0  -40  1                                            
    6  1  Kankakee  V2   990  13    0    0  -13   50      109.2 46.2    0  1                                            
    7  0  JacksnRd  V2   98912.6    0    0    0    0       39.9  4.2    0  1                                            
    8  1  Olive     V1  101520.8    0    0 -300  300       58.8    0    0  1                                            
    9  0  Bequine   V1  1043  28    0    0    0    0          0    0    0  1                                            
   10  1  Breed     V1  105035.6  529    0 -147  200          0    0    0  1                                            
   11  0  SouthBnd  V2   98512.7    0    0    0    0        147 48.3    0  1                                            
   12  1  TwinBrch  V2   99012.2  281    0  -35  120       98.7   21    0  1                                            
   13  0  Concord   V2   96811.3    0    0    0    0       71.4 33.6    0  1                                            
   14  0  GoshenJt  V2   98411.5    0    0    0    0       29.4  2.1    0  1                                            
   15  1  FtWayne   V2   97011.2    0    0  -10   30        189   63    0  1                                            
   16  0  N. E.     V2   98411.9    0    0    0    0       52.5   21    0  1                                            
   17  0  Sorenson  V2   99513.7    0    0    0    0       23.1  6.3    0  1                                            
   18  1  McKinley  V2   97311.5    0    0  -16   50        126 71.4    0  1                                            
   19  1  Lincoln   V2   96211.1    0    0   -8   24       94.5 52.5    0  1                                            
   20  0  Adams     V2   95811.9    0    0    0    0       37.8  6.3    0  1                                            
   21  0  Jay       V2   95913.5    0    0    0    0       29.4 16.8    0  1                                            
   22  0  Randolph  V2   97016.1    0    0    0    0         21 10.5    0  1                                            
   23  0  CollCrnr  V2  1000  21    0    0    0    0       14.7  6.3    0  1                                            
   24  1  Trenton   V2   99220.9    0    0 -300  300       27.3    0    0  1                                            
   25  1  TannrsCk  V2  105027.9  373    0  -47  140          0    0    0  1                                            
   26  1  TannrsCk  V1  101529.7  437    0-1000 1000          0    0    0  1                                            
   27  1  Madison   V2   96815.4    0    0 -300  300      149.1 27.3    0  1                                            
   28  0  Mullin    V2   96213.6    0    0    0    0       35.7 14.7    0  1                                            
   29  0  Grant     V2   96312.6    0    0    0    0       50.4  8.4    0  1                                            
   30  0  Sorenson  V1   96818.8    0    0    0    0          0    0    0  1                                            
   31  1  DeerCrk   V2   96712.8  228    0 -300  300       90.3 56.7    0  1                                            
   32  1  Delaware  V2   96314.8    0    0  -14   42      123.9 48.3    0  1                                            
   33  0  Haviland  V2   97210.6    0    0    0    0       48.3 18.9    0  1                                            
   34  1  Rockhill  V2   98411.3    0    0   -8   24      123.9 54.6   14  1                                            
   35  0  WestLima  V2   98110.9    0    0    0    0       69.3 18.9    0  2                                            
   36  1  Sterling  V2   98010.9    0    0   -8   24       65.1 35.7    0  2                                            
   37  0  EastLima  V2   99211.8    0    0    0    0          0    0  -25  2                                            
   38  0  EastLima  V1   96216.9    0    0    0    0          0    0    0  2                                            
   39  0  NwLibrty  V2   970 8.4    0    0    0    0       56.7 23.1    0  2                                            
   40  1  West End  V2   970 7.4    0    0 -300  300      138.6 48.3    0  2                                            
   41  0  S.Tiffin  V2   967 6.9    0    0    0    0       77.7   21    0  2                                            
   42  1  Howard    V2   985 8.5    0    0 -300  300      201.6 48.3    0  2                                            
   43  0  S.Kenton  V2   97811.3    0    0    0    0       37.8 14.7    0  2                                            
   44  0  WMVernon  V2   98513.8    0    0    0    0       33.6 16.8   10  2                                            
   45  0  N.Newark  V2   98715.7    0    0    0    0      111.3 46.2   10  2                                            
   46  1  W.Lancst  V2  100518.5  236    0 -100  100       58.8   21   10  2                                            
   47  0  Crooksvl  V2  101720.7    0    0    0    0       71.4    0    0  2                                            
   48  0  Zanesvll  V2  102119.9    0    0    0    0         42 23.1   15  2                                            
   49  1  Philo     V2  102520.9  362    0  -85  210      182.7   63    0  2                                            
   50  0  WCambrdg  V2  100118.9    0    0    0    0       35.7  8.4    0  2                                            
   51  0  Newcmrst  V2   96716.3    0    0    0    0       35.7 16.8    0  2                                            
   52  0  SCoshoct  V2   95715.3    0    0    0    0       37.8 10.5    0  2                                            
   53  0  Wooster   V2   94614.4    0    0    0    0       48.3 23.1    0  2                                            
   54  1  Torrey    V2   95515.3  256    0 -300  300      237.3 67.2    0  2                                            
   55  1  Wagenhls  V2   952  15    0    0   -8   23      132.3 46.2    0  2                                            
   56  1  Sunnysde  V2   95415.2    0    0   -8   15      176.4 37.8    0  2                                            
   57  0  WNwPhil1  V2   97116.4    0    0    0    0       25.2  6.3    0  2                                            
   58  0  WNwPhil2  V2   95915.5    0    0    0    0       25.2  6.3    0  2                                            
   59  1  Tidd      V2   98519.4  329    0  -60  180      581.7237.3    0  2                                            
   60  0  SWKammer  V2   99323.2    0    0    0    0      163.8  6.3    0  2                                            
   61  1  W.Kammer  V2   995  24  332    0 -100  300          0    0    0  2                                            
   62  1  Natrium   V2   99823.4    0    0  -20   20      161.7 29.4    0  2                                            
   63  0  Tidd      V1   96922.8    0    0    0    0          0    0    0  2                                            
   64  0  Kammer    V1   98424.5    0    0    0    0          0    0    0  2                                            
   65  1  Muskngum  V1  100527.7  489    0  -67  200          0    0    0  2                                            
   66  1  Muskngum  V2  105027.5  490    0  -67  200       81.9 37.8    0  2                                            
   67  0  Summerfl  V2  102024.8    0    0    0    0       58.8 14.7    0  2                                            
   68  0  Sporn     V1  100327.6    0    0    0    0          0    0    0  2                                            
   69  2  Sporn     V2  1035  30  996    0 -300  300          0    0    0  2                                            
   70  1  Portsmth  V2   98422.6    0    0  -10   32      138.6   42    0  2                                            
   71  0  NPortsmt  V2   98722.1    0    0    0    0          0    0    0  2                                            
   72  1  Hillsbro  V2   980  21    0    0 -100  100       25.2    0    0  2                                            
   73  1  Sargents  V2   99121.9    0    0 -100  100       12.6    0    0  2                                            
   74  1  Bellefnt  V2   95821.6    0    0   -6    9      142.8 56.7   12  2                                            
   75  0  SthPoint  V2   96722.9    0    0    0    0       98.7 23.1    0  3                                            
   76  1  Darrah    V2   94321.8    0    0   -8   23      142.8 75.6    0  3                                            
   77  1  Turner    V2  100626.7    0    0  -20   70      128.1 58.8    0  3                                            
   78  0  Chemical  V2  100326.4    0    0    0    0      149.1 54.6    0  3                                            
   79  0  CapitlHl  V2  100926.7    0    0    0    0       81.9 67.2   20  3                                            
   80  1  CabinCrk  V2  1040  29  548    0 -165  280        273 54.6    0  3                                            
   81  0  Kanawha   V1   99728.1    0    0    0    0          0    0    0  3                                            
   82  0  Logan     V2   98927.2    0    0    0    0      113.4 56.7   20  3                                            
   83  0  Sprigg    V2   98528.4    0    0    0    0         42   21   10  3                                            
   84  0  BetsyLne  V2   980  31    0    0    0    0       23.1 14.7    0  3                                            
   85  1  BeaverCk  V2   98532.5    0    0   -8   23       50.4 31.5    0  3                                            
   86  0  Hazard    V2   98731.1    0    0    0    0       44.1   21    0  3                                            
   87  1  Pinevlle  V3  101531.4  226    0 -100 1000          0    0    0  3                                            
   88  0  Fremont   V2   98735.6    0    0    0    0      100.8   21    0  3                                            
   89  1  ClinchRv  V2  100539.7  636    0 -210  300          0    0    0  3                                            
   90  1  Holston   V2   98533.3    0    0 -300  300      342.3 88.2    0  3                                            
   91  1  HolstonT  V2   98033.3    0    0 -100  100         21    0    0  3                                            
   92  1  Saltvlle  V2   99033.8    0    0   -3    9      136.5   21    0  3                                            
   93  0  Tazewell  V2   98730.8    0    0    0    0       25.2 14.7    0  3                                            
   94  0  Switchbk  V2   99128.6    0    0    0    0         63 33.6    0  3                                            
   95  0  Caldwell  V2   98127.7    0    0    0    0       88.2 65.1    0  3                                            
   96  0  Baileysv  V2   99327.5    0    0    0    0       79.8 31.5    0  3                                            
   97  0  Sundial   V2  101127.9    0    0    0    0       31.5 18.9    0  3                                            
   98  0  Bradley   V2  102427.4    0    0    0    0       71.4 16.8    0  3                                            
   99  1  Hinton    V2  1010  27    0    0 -100  100       88.2    0    0  3                                            
  100  1  Glen Lyn  V2  1017  28  395    0  -50  155       77.7 37.8    0  3                                            
  101  0  Wythe     V2   99329.6    0    0    0    0       46.2 31.5    0  3                                            
  102  0  Smythe    V2   99132.3    0    0    0    0       10.5  6.3    0  3                                            
  103  1  Claytor   V2  101024.4  251    0  -15   40       48.3 33.6    0  3                                            
  104  1  Hancock   V2   97121.7    0    0   -8   23       79.8 52.5    0  3                                            
  105  1  Roanoke   V2   96520.6    0    0   -8   23       65.1 54.6   20  3                                            
  106  0  Cloverdl  V2   96220.3    0    0    0    0       90.3 33.6    0  3                                            
  107  1  Reusens   V2   95217.5    0    0 -200  200        105 25.2    6  3                                            
  108  0  Blaine    V2   96719.4    0    0    0    0        4.2  2.1    0  3                                            
  109  0  Franklin  V2   96718.9    0    0    0    0       16.8  6.3    0  3                                            
  110  1  Fieldale  V2   97318.1    0    0   -8   23       81.9   63    6  3                                            
  111  1  DanRiver  V2   98019.7  248    0 -100 1000          0    0    0  3                                            
  112  1  Danville  V2   975  15    0    0 -100 1000      142.8 27.3    0  3                                            
  113  1  Deer Crk  V2   99313.7    0    0 -100  200       12.6    0    0  1                                            
  114  0  WMedford  V2   96014.5    0    0    0    0       16.8  6.3    0  1                                            
  115  0  Medford   V2   96014.5    0    0    0    0       46.2 14.7    0  1                                            
  116  1  KygerCrk  V2  100527.1    0    0-1000 1000      386.4    0    0  3                                            
  117  0  Corey     V2   97410.7    0    0    0    0         42 16.8    0  1                                            
  118  0  WHuntngd  V2   94921.9    0    0    0    0       69.3 31.5    0  3                                            
  128  0      Eolica-8  101520.8    0    0    0    0       -200    0    0  4                                            
  138  0     Eolica-32   96314.8    0    0    0    0       -200    0    0  4                                            
  148  0     Eolica-42   985 8.5    0    0    0    0       -200    0    0  4                                            
  158  0     Eolica-55   952  15    0    0    0    0       -200    0    0  4                                            
  168  0     Eolica-76   94321.8    0    0    0    0       -200    0    0  4                                            
  178  0     Eolica-92   99033.8    0    0    0    0       -200    0    0  4                                            
  188  0    Eolica-105   96520.6    0    0    0    0       -200    0    0  4                                            
99999
DLIN
(De )d O d(Pa )NcEPM( R% )( X% )(Mvar)(Tap)(Tmn)(Tmx)(Phs)(Bc  )(Cn)(Ce)Ns(Cq)(1)(2)(3)(4)(5)(6)(7)(8)(9)(10
    1         2 1     3.03  9.99  2.54                                                                                  
    1         3 1     1.29  4.24 1.082                                                                                  
    4         5 1    0.176 0.798  0.21                                                                                  
    3         5 1     2.41  10.8  2.84                                                                                  
    5         6 1     1.19   5.4 1.426                                                                                  
    6         7 1    0.459  2.08  0.55                                                                                  
    8         9 1    0.244  3.05 116.2                                                                                  
    8         5 1        0  2.67     00.985              0                                                              
    9        10 1    0.258  3.22   123                                                                                  
    4        11 1     2.09  6.88 1.748                                                                                  
    5        11 1     2.03  6.82 1.738                                                                                  
   11        12 1    0.595  1.96 0.502                                                                                  
    2        12 1     1.87  6.16 1.572                                                                                  
    3        12 1     4.84    16  4.06                                                                                  
    7        12 1    0.862   3.4 0.874                                                                                  
   11        13 1    2.225  7.31 1.876                                                                                  
   12        14 1     2.15  7.07 1.816                                                                                  
   13        15 1     7.44 24.44 6.268                                                                                  
   14        15 1     5.95  19.5  5.02                                                                                  
   12        16 1     2.12  8.34  2.14                                                                                  
   15        17 1     1.32  4.37  4.44                                                                                  
   16        17 1     4.54 18.01  4.66                                                                                  
   17        18 1     1.23  5.05 1.298                                                                                  
   18        19 1    1.119  4.93 1.142                                                                                  
   19        20 1     2.52  11.7  2.98                                                                                  
   15        19 1      1.2  3.94  1.01                                                                                  
   20        21 1     1.83  8.49  2.16                                                                                  
   21        22 1     2.09   9.7  2.46                                                                                  
   22        23 1     3.42  15.9  4.04                                                                                  
   23        24 1     1.35  4.92  4.98                                                                                  
   23        25 1     1.56     8  8.64                                                                                  
   26        25 1        0  3.82     0 0.96              0                                                              
   25        27 1     3.18  16.3 17.64                                                                                  
   27        28 1    1.913  8.55  2.16                                                                                  
   28        29 1     2.37  9.43  2.38                                                                                  
   30        17 1        0  3.88     0 0.96              0                                                              
    8        30 1    0.431  5.04  51.4                                                                                  
   26        30 1    0.799   8.6  90.8                                                                                  
   17        31 1     4.74 15.63  3.99                                                                                  
   29        31 1     1.08  3.31  0.83                                                                                  
   23        32 1     3.17 11.53 11.73                                                                                  
   31        32 1     2.98  9.85  2.51                                                                                  
   27        32 1     2.29  7.55 1.926                                                                                  
   15        33 1      3.8 12.44 3.194                                                                                  
   19        34 1     7.52  24.7  6.32                                                                                  
   35        36 1    0.224  1.02 0.268                                                                                  
   35        37 1      1.1  4.97 1.318                                                                                  
   33        37 1     4.15  14.2  3.66                                                                                  
   34        36 1    0.871  2.68 0.568                                                                                  
   34        37 1    0.256  0.94 0.984                                                                                  
   38        37 1        0  3.75     00.935              0                                                              
   37        39 1     3.21  10.6   2.7                                                                                  
   37        40 1     5.93  16.8   4.2                                                                                  
   30        38 1    0.464   5.4  42.2                                                                                  
   39        40 1     1.84  6.05 1.552                                                                                  
   40        41 1     1.45  4.87 1.222                                                                                  
   40        42 1     5.55  18.3  4.66                                                                                  
   41        42 1      4.1  13.5  3.44                                                                                  
   43        44 1     6.08 24.54 6.068                                                                                  
   34        43 1     4.13 16.81 4.226                                                                                  
   44        45 1     2.24  9.01  2.24                                                                                  
   45        46 1        4 13.56  3.32                                                                                  
   46        47 1      3.8  12.7  3.16                                                                                  
   46        48 1     6.01  18.9  4.72                                                                                  
   47        49 1     1.91  6.25 1.604                                                                                  
   42        49 1     7.15  32.3   8.6                                                                                  
   42        49 2     7.15  32.3   8.6                                                                                  
   45        49 1     6.84  18.6  4.44                                                                                  
   48        49 1     1.79  5.05 1.258                                                                                  
   49        50 1     2.67  7.52 1.874                                                                                  
   49        51 1     4.86  13.7  3.42                                                                                  
   51        52 1     2.03  5.88 1.396                                                                                  
   52        53 1     4.05 16.35 4.058                                                                                  
   53        54 1     2.63  12.2   3.1                                                                                  
   49        54 1      7.3  28.9  7.38                                                                                  
   49        54 2     8.69  29.1   7.3                                                                                  
   54        55 1     1.69  7.07  2.02                                                                                  
   54        56 1    0.275 0.955 0.732                                                                                  
   55        56 1    0.488  1.51 0.374                                                                                  
   56        57 1     3.43  9.66  2.42                                                                                  
   50        57 1     4.74  13.4  3.32                                                                                  
   56        58 1     3.43  9.66  2.42                                                                                  
   51        58 1     2.55  7.19 1.788                                                                                  
   54        59 1     5.03 22.93  5.98                                                                                  
   56        59 1     8.25  25.1  5.69                                                                                  
   56        59 2     8.03  23.9  5.36                                                                                  
   55        59 1    4.739 21.58 5.646                                                                                  
   59        60 1     3.17  14.5  3.76                                                                                  
   59        61 1     3.28    15  3.88                                                                                  
   60        61 1    0.264  1.35 1.456                                                                                  
   60        62 1     1.23  5.61 1.468                                                                                  
   61        62 1    0.824  3.76  0.98                                                                                  
   63        59 1        0  3.86     0 0.96              0                                                              
   63        64 1    0.172     2  21.6                                                                                  
   64        61 1        0  2.68     00.985              0                                                              
   38        65 1    0.901  9.86 104.6                                                                                  
   64        65 1    0.269  3.02    38                                                                                  
   49        66 1      1.8  9.19  2.48                                                                                  
   49        66 2      1.8  9.19  2.48                                                                                  
   62        66 1     4.82  21.8  5.78                                                                                  
   62        67 1     2.58  11.7   3.1                                                                                  
   65        66 1        0   3.7     00.935              0                                                              
   66        67 1     2.24 10.15 2.682                                                                                  
   65        68 1    0.138   1.6  63.8                                                                                  
   47        69 1     8.44 27.78 7.092                                                                                  
   49        69 1     9.85  32.4  8.28                                                                                  
   68        69 1        0   3.7     00.935              0                                                              
   69        70 1        3  12.7  12.2                                                                                  
   24        70 1    0.221 41.1510.198                                                                                  
   70        71 1    0.882  3.55 0.878                                                                                  
   24        72 1     4.88  19.6  4.88                                                                                  
   71        72 1     4.46    18 4.444                                                                                  
   71        73 1    0.866  4.54 1.178                                                                                  
   70        74 1     4.01 13.23 3.368                                                                                  
   70        75 1     4.28  14.1   3.6                                                                                  
   69        75 1     4.05  12.2  12.4                                                                                  
   74        75 1     1.23  4.06 1.034                                                                                  
   76        77 1     4.44  14.8  3.68                                                                                  
   69        77 1     3.09  10.1 10.38                                                                                  
   75        77 1     6.01 19.99 4.978                                                                                  
   77        78 1    0.376  1.24 1.264                                                                                  
   78        79 1    0.546  2.44 0.648                                                                                  
   77        80 1      1.7  4.85  4.72                                                                                  
   77        80 2     2.94  10.5  2.28                                                                                  
   79        80 1     1.56  7.04  1.87                                                                                  
   68        81 1    0.175  2.02  80.8                                                                                  
   81        80 1        0   3.7     00.935              0                                                              
   77        82 1     2.98  8.53 8.174                                                                                  
   82        83 1     1.12 3.665 3.796                                                                                  
   83        84 1     6.25  13.2  2.58                                                                                  
   83        85 1      4.3  14.8  3.48                                                                                  
   84        85 1     3.02  6.41 1.234                                                                                  
   85        86 1      3.5  12.3  2.76                                                                                  
   86        87 1    2.828 20.74  4.45                                                                                  
   85        88 1        2  10.2  2.76                                                                                  
   85        89 1     2.39  17.3   4.7                                                                                  
   88        89 1     1.39  7.12 1.934                                                                                  
   89        90 1     5.18  18.8  5.28                                                                                  
   89        90 2     2.38  9.97  10.6                                                                                  
   90        91 1     2.54  8.36  2.14                                                                                  
   89        92 1     0.99  5.05  5.48                                                                                  
   89        92 2     3.93 15.81  4.14                                                                                  
   91        92 1     3.87 12.72 3.268                                                                                  
   92        93 1     2.58  8.48  2.18                                                                                  
   92        94 1     4.81  15.8  4.06                                                                                  
   93        94 1     2.23  7.32 1.876                                                                                  
   94        95 1     1.32  4.34  1.11                                                                                  
   80        96 1     3.56  18.2  4.94                                                                                  
   82        96 1     1.62   5.3  5.44                                                                                  
   94        96 1     2.69  8.69   2.3                                                                                  
   80        97 1     1.83  9.34  2.54                                                                                  
   80        98 1     2.38  10.8  2.86                                                                                  
   80        99 1     4.54  20.6  5.46                                                                                  
   92       100 1     6.48  29.5  4.72                                                                                  
   94       100 1     1.78   5.8  6.04                                                                                  
   95        96 1     1.71  5.47 1.474                                                                                  
   96        97 1     1.73  8.85   2.4                                                                                  
   98       100 1     3.97  17.9  4.76                                                                                  
   99       100 1      1.8  8.13  2.16                                                                                  
  100       101 1     2.77 12.62  3.28                                                                                  
   92       102 1     1.23  5.59 1.464                                                                                  
  101       102 1     2.46  11.2  2.94                                                                                  
  100       103 1      1.6  5.25  5.36                                                                                  
  100       104 1     4.51  20.4  5.41                                                                                  
  103       104 1     4.66 15.84  4.07                                                                                  
  103       105 1     5.35 16.25  4.08                                                                                  
  100       106 1     6.05  22.9   6.2                                                                                  
  104       105 1    0.994  3.78 0.986                                                                                  
  105       106 1      1.4  5.47 1.434                                                                                  
  105       107 1      5.3  18.3  4.72                                                                                  
  105       108 1     2.61  7.03 1.844                                                                                  
  106       107 1      5.3  18.3  4.72                                                                                  
  108       109 1     1.05  2.88  0.76                                                                                  
  103       110 1    3.906 18.13  4.61                                                                                  
  109       110 1     2.78  7.62  2.02                                                                                  
  110       111 1      2.2  7.55     2                                                                                  
  110       112 1     2.47   6.4   6.2                                                                                  
   17       113 1    0.913  3.01 0.768                                                                                  
   32       113 1     6.15  20.3  5.18                                                                                  
   32       114 1     1.35  6.12 1.628                                                                                  
   27       115 1     1.64  7.41 1.972                                                                                  
  114       115 1     0.23  1.04 0.276                                                                                  
   68       116 1    0.034 0.405  16.4                                                                                  
   12       117 1     3.29    14  3.58                                                                                  
   75       118 1     1.45  4.81 1.198                                                                                  
   76       118 1     1.64  5.44 1.356                                                                                  
    8       128 1        0  1E-5     0                                                                                  
   32       138 1        0  1E-5     0                                                                                  
   42       148 1        0  1E-5     0                                                                                  
   55       158 1        0  1E-5     0                                                                                  
   76       168 1        0  1E-5     0                                                                                  
   92       178 1        0  1E-5     0                                                                                  
  105       188 1        0  1E-5     0                                                                                  
99999
DGER
(No ) O (Pmn ) (Pmx ) ( Fp) (FpR) (FPn) (Fa) (Fr) (Ag) ( Xq) (Sno) (Est)
   10                  4.79                                                                                             
   12                  4.79                                                                                             
   25                  4.79                                                                                             
   26                  4.79                                                                                             
   31                  4.79                                                                                             
   46                  4.79                                                                                             
   49                  4.79                                                                                             
   54                  4.79                                                                                             
   59                  4.79                                                                                             
   61                  4.79                                                                                             
   65                  4.79                                                                                             
   66                  4.79                                                                                             
   69                 13.83                                                                                             
   80                  4.79                                                                                             
   87                  4.79                                                                                             
   89                  4.79                                                                                             
  100                  4.79                                                                                             
  103                  4.79                                                                                             
  111                  4.79                                                                                             
99999
DINC
(tp) (no ) C (tp) (no ) C (tp) (no ) C (tp) (no ) O ( P ) ( Q ) (Pmx) (Qmx)  
AREA     1 A AREA     3                               0.2   0.2                                                         
99999
EXLF NEWT
(EXIC BPSI NEWT
FIM